LAMMPS (3 Mar 2020)
units           real
atom_style      full
boundary        p p p

pair_style      lj/cut/coul/long 12.0
pair_modify     tail yes mix geometric
bond_style      harmonic
angle_style     harmonic
dihedral_style  opls

kspace_style    ewald 1.0e-5
#special_bonds   lj/coul 0.0 0.0 0.5

neighbor        2.0 bin
neigh_modify    every 1 delay 0 check yes

read_data       butane_after_npt.data
  orthogonal box = (3.5033 3.5033 3.5033) to (31.4967 31.4967 31.4967)
  reading atoms ...
  2352 atoms
  reading velocities ...
  2352 velocities
  scanning bonds ...
  scanning angles ...
  scanning dihedrals ...
  reading bonds ...
  2184 bonds
  reading angles ...
  4032 angles
  reading dihedrals ...
  4536 dihedrals

group           mobile union all
2352 atoms in group mobile

#minimize 1.0e-8 1.0e-10 400000 400000
#write_data buate_after_min.data

thermo_style    custom step time enthalpy etotal ke pe temp press vol density
#thermo_modify   line multi
thermo          1000
thermo_modify   flush yes
timestep 1.0

## Equil NPT ##
#fix      NPT  all nvt temp 272 272 100 iso 1 1 1000
#restart 1000000 liqbut1.restart

#fix      NPT  all npt temp 160 160 50 iso 1 1 500
#dump myDump all atom 2000 butane_npt.lammpstrj

#run 5000000
#write_data ethanol_after_npt.data

fix 1 all nvt temp 175 175 100 # iso 1.0 1.0 1000.0
#dump            DUMPxyz all xyz 1 but1_clms_20ps.xyz
#dump            DUMP all custom 1000 mol.lammpstrj id type x y z fx fy fz mol

run 500000
Ewald initialization ...
  G vector (1/distance) = 0.189385
  estimated absolute RMS force accuracy = 0.00391074
  estimated relative force accuracy = 1.17771e-05
  KSpace vectors: actual max1d max3d = 128 4 364
                  kxmax kymax kzmax  = 4 4 4
  update every 1 steps, delay 0 steps, check yes
Step Time Enthalpy TotEng KinEng PotEng Temp Press Volume Density
0            0    1280.8233    1313.7474    1132.0057    181.74167    161.53316   -102.91312    21936.478   0.73915788
Averages over the last 251 of 501 rows, steps 250000 to 500000:
Enthalpy TotEng KinEng PotEng Temp Press Volume Density
1671.54 1510.09 1224.82 285.266 174.778 504.672 21936.5 0.739158
Loop time of 1091.65 on 24 procs for 500000 steps with 2352 atoms

write_data butane_afterr_nvt1.data
Ewald initialization ...
  G vector (1/distance) = 0.189385
  estimated absolute RMS force accuracy = 0.00391074
  estimated relative force accuracy = 1.17771e-05
  KSpace vectors: actual max1d max3d = 128 4 364
                  kxmax kymax kzmax  = 4 4 4
