LAMMPS (3 Mar 2020)
units           real
atom_style      full
boundary        p p p

pair_style      lj/cut/coul/long 12.0
pair_modify     tail yes mix geometric
bond_style      harmonic
angle_style     harmonic
dihedral_style  opls

kspace_style    ewald 1.0e-5
#special_bonds   lj/coul 0.0 0.0 0.5

neighbor        2.0 bin
neigh_modify    every 1 delay 0 check yes

read_data       butane_after_npt.data
  orthogonal box = (2.96201 2.96201 2.96201) to (32.038 32.038 32.038)
  reading atoms ...
  2352 atoms
  reading velocities ...
  2352 velocities
  scanning bonds ...
  scanning angles ...
  scanning dihedrals ...
  reading bonds ...
  2184 bonds
  reading angles ...
  4032 angles
  reading dihedrals ...
  4536 dihedrals

group           mobile union all
2352 atoms in group mobile

#minimize 1.0e-8 1.0e-10 400000 400000
#write_data buate_after_min.data

fix DEF all deform 1 x final 0.0 28.898 y final 0.0 28.898 z final 0.0 28.898 units box
run 1
Ewald initialization ...
  G vector (1/distance) = 0.188339
  estimated absolute RMS force accuracy = 0.00435253
  estimated relative force accuracy = 1.31075e-05
  KSpace vectors: actual max1d max3d = 128 4 364
                  kxmax kymax kzmax  = 4 4 4
  update every 1 steps, delay 0 steps, check yes
Step Temp E_pair E_mol TotEng Press Volume
0    212.28063   -750.46881    1438.3983    2175.5676   -396.65655    24581.182
Loop time of 0.00191437 on 24 procs for 1 steps with 2352 atoms

unfix DEF

thermo_style    custom step time enthalpy etotal ke pe temp press vol density
#thermo_modify   line multi
thermo          1000
thermo_modify   flush yes
timestep 1.0

## Equil NPT ##
#fix      NPT  all nvt temp 272 272 100 iso 1 1 1000
#restart 1000000 liqbut1.restart

#fix      NPT  all npt temp 160 160 50 iso 1 1 500
#dump myDump all atom 2000 butane_npt.lammpstrj

#run 5000000
#write_data ethanol_after_npt.data

fix 1 all nvt temp 215 215 100 # iso 1.0 1.0 1000.0
#dump            DUMPxyz all xyz 1 but1_clms_20ps.xyz
#dump            DUMP all custom 1000 mol.lammpstrj id type x y z fx fy fz mol

run 1000000
Ewald initialization ...
  G vector (1/distance) = 0.188509
  estimated absolute RMS force accuracy = 0.00426774
  estimated relative force accuracy = 1.28522e-05
  KSpace vectors: actual max1d max3d = 128 4 364
                  kxmax kymax kzmax  = 4 4 4
Step Time Enthalpy TotEng KinEng PotEng Temp Press Volume Density
1            1    6189.3963    2192.8647    1487.6381    705.22654    212.28063    11355.441    24132.558     0.671894
Averages over the last 501 of 1002 rows, steps 501000 to 1000001:
Enthalpy TotEng KinEng PotEng Temp Press Volume Density
2180.21 2189.65 1508.81 680.844 215.301 -26.8247 24132.6 0.671894
Loop time of 1523.62 on 24 procs for 1000000 steps with 2352 atoms

write_data butane_afterr_nvt1_200K.data
Ewald initialization ...
  G vector (1/distance) = 0.188509
  estimated absolute RMS force accuracy = 0.00426774
  estimated relative force accuracy = 1.28522e-05
  KSpace vectors: actual max1d max3d = 128 4 364
                  kxmax kymax kzmax  = 4 4 4
