LAMMPS (3 Mar 2020)
units           real
atom_style      full
boundary        p p p

pair_style      lj/cut/coul/long 12.0
pair_modify     tail yes mix geometric
bond_style      harmonic
angle_style     harmonic
dihedral_style  opls

kspace_style    ewald 1.0e-5
#special_bonds   lj/coul 0.0 0.0 0.5

neighbor        2.0 bin
neigh_modify    every 1 delay 0 check yes

read_data       butane_after_npt.data
  orthogonal box = (2.40481 2.40481 2.40481) to (32.5952 32.5952 32.5952)
  reading atoms ...
  2352 atoms
  reading velocities ...
  2352 velocities
  scanning bonds ...
  scanning angles ...
  scanning dihedrals ...
  reading bonds ...
  2184 bonds
  reading angles ...
  4032 angles
  reading dihedrals ...
  4536 dihedrals

group           mobile union all
2352 atoms in group mobile

#minimize 1.0e-8 1.0e-10 400000 400000
#write_data buate_after_min.data

fix DEF all deform 1 x final 0.0 29.9269 y final 0.0 29.9269 z final 0.0 29.9269 units box
run 1
Ewald initialization ...
  G vector (1/distance) = 0.187296
  estimated absolute RMS force accuracy = 0.00332713
  estimated relative force accuracy = 1.00196e-05
  KSpace vectors: actual max1d max3d = 257 5 665
                  kxmax kymax kzmax  = 5 5 5
  update every 1 steps, delay 0 steps, check yes
Step Temp E_pair E_mol TotEng Press Volume
0     276.5994   -612.84208    1824.4851    3150.0197    157.01215    27517.287
Loop time of 0.00194706 on 24 procs for 1 steps with 2352 atoms

unfix DEF

thermo_style    custom step time enthalpy etotal ke pe temp press vol density
#thermo_modify   line multi
thermo          1000
thermo_modify   flush yes
timestep 1.0

## Equil NPT ##
#fix      NPT  all nvt temp 272 272 100 iso 1 1 1000
#restart 1000000 liqbut1.restart

#fix      NPT  all npt temp 160 160 50 iso 1 1 500
#dump myDump all atom 2000 butane_npt.lammpstrj

#run 5000000
#write_data ethanol_after_npt.data

fix 1 all nvt temp 272 272 100 # iso 1.0 1.0 1000.0
#dump            DUMPxyz all xyz 1 but1_clms_20ps.xyz
#dump            DUMP all custom 1000 mol.lammpstrj id type x y z fx fy fz mol

run 1000000
Ewald initialization ...
  G vector (1/distance) = 0.18754
  estimated absolute RMS force accuracy = 0.00332589
  estimated relative force accuracy = 1.00158e-05
  KSpace vectors: actual max1d max3d = 257 5 665
                  kxmax kymax kzmax  = 5 5 5
Step Time Enthalpy TotEng KinEng PotEng Temp Press Volume Density
1            1    9139.1558    3195.2677    1938.3766    1256.8911     276.5994    15205.809    26803.111   0.60494922
Averages over the last 501 of 1002 rows, steps 501000 to 1000001:
Enthalpy TotEng KinEng PotEng Temp Press Volume Density
3075.33 3091.45 1905.97 1185.48 271.975 -41.2253 26803.1 0.604949
Loop time of 1518.71 on 24 procs for 1000000 steps with 2352 atoms

write_data butane_afterr_nvt1_200K.data
Ewald initialization ...
  G vector (1/distance) = 0.18754
  estimated absolute RMS force accuracy = 0.00332589
  estimated relative force accuracy = 1.00158e-05
  KSpace vectors: actual max1d max3d = 257 5 665
                  kxmax kymax kzmax  = 5 5 5
