LAMMPS (3 Mar 2020)
units           real
atom_style      full
boundary        p p p

pair_style      lj/cut/coul/long 12.0
pair_modify     tail yes mix geometric
bond_style      harmonic
angle_style     harmonic
dihedral_style  opls

kspace_style    ewald 1.0e-5
#special_bonds   lj/coul 0.0 0.0 0.5

neighbor        2.0 bin
neigh_modify    every 1 delay 0 check yes

read_data       buate_after_min.data
  orthogonal box = (0 0 0) to (35 35 35)
  reading atoms ...
  2352 atoms
  reading velocities ...
  2352 velocities
  scanning bonds ...
  scanning angles ...
  scanning dihedrals ...
  reading bonds ...
  2184 bonds
  reading angles ...
  4032 angles
  reading dihedrals ...
  4536 dihedrals

group           mobile union all
2352 atoms in group mobile

#minimize 1.0e-8 1.0e-10 400000 400000
#write_data buate_after_min.data

thermo_style    custom step time  etotal ke pe temp press vol density
#thermo_modify   line multi
thermo          2000
thermo_modify   flush yes
timestep 1.0

## Equil NPT ##
fix      NPT  all npt temp 250 250 100 iso 1 1 1000
restart 1000000 liqbut1.restart

#fix      NPT  all npt temp 160 160 50 iso 1 1 500
dump myDump all atom 2000 butane_npt.lammpstrj

run 5000000
Ewald initialization ...
  G vector (1/distance) = 0.183139
  estimated absolute RMS force accuracy = 0.00345955
  estimated relative force accuracy = 1.04183e-05
  KSpace vectors: actual max1d max3d = 257 5 665
                  kxmax kymax kzmax  = 5 5 5
  update every 1 steps, delay 0 steps, check yes
Step Time TotEng KinEng PotEng Temp Press Volume Density
0            0   -769.51728            0   -769.51728            0   -124.28966        42875   0.37818125
Averages over the last 1251 of 2501 rows, steps 2500000 to 5000000:
TotEng KinEng PotEng Temp Press Volume Density
2742.02 1753.41 988.607 250.205 20.0362 25617.1 0.633093
Loop time of 7254.23 on 30 procs for 5000000 steps with 2352 atoms

write_data ethanol_after_npt.data
Ewald initialization ...
  G vector (1/distance) = 0.187824
  estimated absolute RMS force accuracy = 0.00464375
  estimated relative force accuracy = 1.39845e-05
  KSpace vectors: actual max1d max3d = 128 4 364
                  kxmax kymax kzmax  = 4 4 4

#fix 1 all nvt temp 300 300 100# iso 1.0 1.0 1000.0
#dump            DUMPxyz all xyz 1 but1_clms_20ps.xyz

#run 500000
