LAMMPS (3 Mar 2020)
units           real
atom_style      full
boundary        p p p

pair_style      lj/cut/coul/long 12.0
pair_modify     tail yes mix geometric
bond_style      harmonic
angle_style     harmonic
dihedral_style  opls

kspace_style    ewald 1.0e-5
#special_bonds   lj/coul 0.0 0.0 0.5

neighbor        2.0 bin
neigh_modify    every 1 delay 0 check yes

read_data       butane_afterr_nvt1.data
  orthogonal box = (0 0 0) to (28.0629 28.0629 28.0629)
  reading atoms ...
  2352 atoms
  reading velocities ...
  2352 velocities
  scanning bonds ...
  scanning angles ...
  scanning dihedrals ...
  reading bonds ...
  2184 bonds
  reading angles ...
  4032 angles
  reading dihedrals ...
  4536 dihedrals

group           mobile union all
2352 atoms in group mobile

#minimize 1.0e-8 1.0e-10 400000 400000
#write_data buate_after_min.data

#fix DEF all deform 1 x final 0.0 28.0629 y final 0.0 28.0629 z final 0.0 28.0629 units box
#run 1
#unfix DEF

thermo_style    custom step time enthalpy etotal ke pe temp press vol density
#thermo_modify   line multi
thermo          1000
thermo_modify   flush yes
timestep 1.0

## Equil NPT ##
#fix      NPT  all nvt temp 272 272 100 iso 1 1 1000
#restart 1000000 liqbut1.restart

#fix      NPT  all npt temp 160 160 50 iso 1 1 500
#dump myDump all atom 2000 butane_npt.lammpstrj

#run 5000000
#write_data ethanol_after_npt.data

fix 1 all nvt temp 160 160 100 # iso 1.0 1.0 1000.0
#dump            DUMPxyz all xyz 1 but1_clms_20ps.xyz
#dump            DUMP all custom 1000 mol.lammpstrj id type x y z fx fy fz mol

run 1000000
Ewald initialization ...
  G vector (1/distance) = 0.189317
  estimated absolute RMS force accuracy = 0.00393399
  estimated relative force accuracy = 1.18471e-05
  KSpace vectors: actual max1d max3d = 128 4 364
                  kxmax kymax kzmax  = 4 4 4
  update every 1 steps, delay 0 steps, check yes
Step Time Enthalpy TotEng KinEng PotEng Temp Press Volume Density
0            0     1290.569    1356.4233    1145.8046    210.61872    163.50221   -204.31983    22100.273   0.73367965
Averages over the last 501 of 1001 rows, steps 500000 to 1000000:
Enthalpy TotEng KinEng PotEng Temp Press Volume Density
1308 1309.77 1121.95 187.816 160.099 -5.48896 22100.3 0.73368
Loop time of 1861.57 on 24 procs for 1000000 steps with 2352 atoms

#write_data butane_afterr_nvt1.data
